<?xml version="1.0" encoding="UTF-8"?>

<!--
Luxembourg SUMO Traffic (LuST) Scenario

Author: Lara CODECA [codeca@gmail.com]

================================================================================
The MIT License (MIT)

Copyright (c) 2016 Lara CODECA [codeca@gmail.com], VehicularLab [vehicular-lab@uni.lu]

Permission is hereby granted, free of charge, to any person obtaining a copy
of this software and associated documentation files (the "Software"), to deal
in the Software without restriction, including without limitation the rights
to use, copy, modify, merge, publish, distribute, sublicense, and/or sell
copies of the Software, and to permit persons to whom the Software is
furnished to do so, subject to the following conditions:

The above copyright notice and this permission notice shall be included in all
copies or substantial portions of the Software.

THE SOFTWARE IS PROVIDED "AS IS", WITHOUT WARRANTY OF ANY KIND, EXPRESS OR
IMPLIED, INCLUDING BUT NOT LIMITED TO THE WARRANTIES OF MERCHANTABILITY,
FITNESS FOR A PARTICULAR PURPOSE AND NONINFRINGEMENT. IN NO EVENT SHALL THE
AUTHORS OR COPYRIGHT HOLDERS BE LIABLE FOR ANY CLAIM, DAMAGES OR OTHER
LIABILITY, WHETHER IN AN ACTION OF CONTRACT, TORT OR OTHERWISE, ARISING FROM,
OUT OF OR IN CONNECTION WITH THE SOFTWARE OR THE USE OR OTHER DEALINGS IN THE
SOFTWARE.
================================================================================
-->

<net version="0.25" xmlns:xsi="http://www.w3.org/2001/XMLSchema-instance" xsi:noNamespaceSchemaLocation="http://sumo.dlr.de/xsd/net_file.xsd">

    <location netOffset="-285448.66,-5492398.13" convBoundary="1788.61,1731.25,11380.24,9893.55" origBoundary="6.030969,49.549099,6.216758,49.652578" projParameter="+proj=utm +zone=32 +ellps=WGS84 +datum=WGS84 +units=m +no_defs"/>

    <edge id=":-10180_0" function="internal">
        <lane id=":-10180_0_0" index="0" speed="19.44" length="7.61" shape="3737.68,2187.41 3731.96,2182.39"/>
    </edge>
    <edge id=":-10180_1" function="internal">
        <lane id=":-10180_1_0" index="0" speed="19.44" length="7.46" shape="3737.68,2187.41 3735.43,2180.29"/>
    </edge>
    <edge id=":-10230_0" function="internal">
        <lane id=":-10230_0_0" index="0" speed="19.44" length="5.56" shape="6224.17,3309.72 6219.04,3307.56"/>
    </edge>
    <edge id=":-10230_1" function="internal">
        <lane id=":-10230_1_0" index="0" speed="19.44" length="5.02" shape="6223.88,3306.21 6219.04,3307.56"/>
    </edge>
    <edge id=":-10678_0" function="internal">
        <lane id=":-10678_0_0" index="0" speed="27.77" length="3.06" shape="10782.57,7672.44 10782.51,7669.38"/>
    </edge>
    <edge id=":-10678_1" function="internal">
        <lane id=":-10678_1_0" index="0" speed="36.11" length="1.70" shape="10785.87,7672.44 10785.93,7670.62"/>
        <lane id=":-10678_1_1" index="1" speed="36.11" length="1.70" shape="10789.17,7672.43 10789.23,7670.73"/>
        <lane id=":-10678_1_2" index="2" speed="36.11" length="1.70" shape="10792.47,7672.42 10792.52,7670.84"/>
    </edge>
    <edge id=":-10808_0" function="internal">
        <lane id=":-10808_0_0" index="0" speed="19.44" length="7.17" shape="3873.90,4606.04 3866.73,4605.91"/>
    </edge>
    <edge id=":-10808_1" function="internal">
        <lane id=":-10808_1_0" index="0" speed="19.44" length="5.41" shape="3871.61,4603.58 3866.73,4605.91"/>
    </edge>
    <edge id=":-10890_0" function="internal">
        <lane id=":-10890_0_0" index="0" speed="27.77" length="3.10" shape="3142.09,9050.57 3144.84,9049.13"/>
    </edge>
    <edge id=":-10890_1" function="internal">
        <lane id=":-10890_1_0" index="0" speed="36.11" length="4.75" shape="3142.38,9054.27 3146.46,9052.01"/>
        <lane id=":-10890_1_1" index="1" speed="36.11" length="4.75" shape="3143.92,9057.18 3148.08,9054.88"/>
        <lane id=":-10890_1_2" index="2" speed="36.11" length="4.75" shape="3145.46,9060.10 3149.70,9057.76"/>
    </edge>
    <edge id=":-11246_0" function="internal">
        <lane id=":-11246_0_0" index="0" speed="19.44" length="8.69" shape="3934.80,2274.41 3933.81,2283.04"/>
    </edge>
    <edge id=":-11246_1" function="internal">
        <lane id=":-11246_1_0" index="0" speed="19.44" length="8.91" shape="3930.89,2274.62 3933.81,2283.04"/>
    </edge>
    <edge id=":-11748_0" function="internal">
        <lane id=":-11748_0_0" index="0" speed="19.44" length="0.10" shape="7037.93,3745.76 7037.93,3745.76"/>
    </edge>
    <edge id=":-12400_0" function="internal">
        <lane id=":-12400_0_0" index="0" speed="27.77" length="3.03" shape="3654.05,6409.45 3654.63,6412.43"/>
    </edge>
    <edge id=":-12400_1" function="internal">
        <lane id=":-12400_1_0" index="0" speed="36.11" length="0.16" shape="3650.78,6409.94 3650.78,6410.06"/>
        <lane id=":-12400_1_1" index="1" speed="36.11" length="0.16" shape="3647.53,6410.50 3647.54,6410.66"/>
        <lane id=":-12400_1_2" index="2" speed="36.11" length="0.16" shape="3644.28,6411.06 3644.29,6411.27"/>
    </edge>
    <edge id=":-12646_0" function="internal">
        <lane id=":-12646_0_0" index="0" speed="19.44" length="0.10" shape="7001.86,3082.17 7001.86,3082.17"/>
    </edge>
    <edge id=":-12906_0" function="internal">
        <lane id=":-12906_0_0" index="0" speed="19.44" length="0.10" shape="7039.88,3748.98 7039.88,3748.98"/>
    </edge>
    <edge id=":-12936_0" function="internal">
        <lane id=":-12936_0_0" index="0" speed="27.77" length="3.15" shape="3713.50,6888.06 3712.81,6884.99"/>
    </edge>
    <edge id=":-12936_1" function="internal">
        <lane id=":-12936_1_0" index="0" speed="36.11" length="1.46" shape="3716.75,6887.49 3716.55,6886.04"/>
        <lane id=":-12936_1_1" index="1" speed="36.11" length="1.46" shape="3720.00,6886.91 3719.80,6885.46"/>
        <lane id=":-12936_1_2" index="2" speed="36.11" length="1.46" shape="3723.25,6886.34 3723.05,6884.89"/>
    </edge>
    <edge id=":-13386_0" function="internal">
        <lane id=":-13386_0_0" index="0" speed="19.44" length="0.10" shape="7097.48,3718.22 7097.48,3718.22"/>
    </edge>
    <edge id=":-13838_0" function="internal">
        <lane id=":-13838_0_0" index="0" speed="19.44" length="5.41" shape="6820.79,3467.52 6821.32,3462.14"/>
    </edge>
    <edge id=":-13838_1" function="internal">
        <lane id=":-13838_1_0" index="0" speed="19.44" length="5.02" shape="6824.31,3466.16 6821.32,3462.14"/>
    </edge>
    <edge id=":-13922_0" function="internal">
        <lane id=":-13922_0_0" index="0" speed="27.77" length="21.04" shape="7296.48,3924.05 7298.97,3927.05 7301.54,3930.80 7304.70,3935.39 7309.01,3940.93"/>
    </edge>
    <edge id=":-13922_1" function="internal">
        <lane id=":-13922_1_0" index="0" speed="36.11" length="14.52" shape="7293.22,3926.77 7297.69,3931.27 7300.36,3934.71 7302.84,3938.33 7306.75,3943.37"/>
        <lane id=":-13922_1_1" index="1" speed="36.11" length="14.52" shape="7290.67,3928.90 7295.23,3933.49 7297.96,3937.00 7300.50,3940.68 7304.49,3945.82"/>
        <lane id=":-13922_1_2" index="2" speed="36.11" length="14.52" shape="7288.11,3931.04 7287.95,3931.17"/>
    </edge>
    <edge id=":-13998_0" function="internal">
        <lane id=":-13998_0_0" index="0" speed="27.77" length="10.86" shape="4411.42,3863.68 4413.84,3861.84 4415.61,3860.50 4417.44,3859.10 4420.06,3857.11"/>
    </edge>
    <edge id=":-13998_1" function="internal">
        <lane id=":-13998_1_0" index="0" speed="36.11" length="3.25" shape="4419.39,3861.88 4422.06,3859.74"/>
        <lane id=":-13998_1_1" index="1" speed="36.11" length="3.25" shape="4421.52,3864.40 4424.05,3862.36"/>
        <lane id=":-13998_1_2" index="2" speed="36.11" length="3.25" shape="4423.65,3866.92 4426.05,3864.99"/>
    </edge>
    <edge id=":-14448_0" function="internal">
        <lane id=":-14448_0_0" index="0" speed="19.44" length="5.56" shape="7152.98,3640.71 7153.65,3635.20"/>
    </edge>
    <edge id=":-14448_1" function="internal">
        <lane id=":-14448_1_0" index="0" speed="19.44" length="5.02" shape="7152.98,3640.71 7156.57,3637.21"/>
    </edge>
    <edge id=":-14502_0" function="internal">
        <lane id=":-14502_0_0" index="0" speed="27.77" length="0.10" shape="7112.97,3791.51 7113.03,3791.44"/>
    </edge>
    <edge id=":-14502_1" function="internal">
        <lane id=":-14502_1_0" index="0" speed="36.11" length="2.98" shape="7115.16,3789.05 7112.95,3786.98"/>
        <lane id=":-14502_1_1" index="1" speed="36.11" length="2.98" shape="7117.35,3786.58 7115.18,3784.55"/>
        <lane id=":-14502_1_2" index="2" speed="36.11" length="2.98" shape="7119.55,3784.12 7117.40,3782.11"/>
    </edge>
    <edge id=":-15130_0" function="internal">
        <lane id=":-15130_0_0" index="0" speed="27.77" length="5.84" shape="10749.61,7136.93 10751.85,7142.33"/>
    </edge>
    <edge id=":-15130_1" function="internal">
        <lane id=":-15130_1_0" index="0" speed="36.11" length="5.00" shape="10746.54,7138.14 10748.36,7142.99"/>
        <lane id=":-15130_1_1" index="1" speed="36.11" length="5.00" shape="10743.47,7139.35 10745.23,7144.03"/>
        <lane id=":-15130_1_2" index="2" speed="36.11" length="5.00" shape="10740.41,7140.56 10742.10,7145.08"/>
    </edge>
    <edge id=":-15822_0" function="internal">
        <lane id=":-15822_0_0" index="0" speed="19.44" length="13.53" shape="6800.01,3424.61 6798.01,3421.75 6795.74,3419.45 6793.26,3417.32 6790.61,3414.97"/>
    </edge>
    <edge id=":-15822_1" function="internal">
        <lane id=":-15822_1_0" index="0" speed="19.44" length="13.53" shape="6800.01,3424.61 6798.28,3421.54 6796.72,3418.70 6795.17,3415.85 6793.48,3412.76"/>
    </edge>
    <edge id=":-16142_0" function="internal">
        <lane id=":-16142_0_0" index="0" speed="19.44" length="6.16" shape="4018.69,2227.33 4020.24,2228.71 4020.59,2229.65 4019.72,2230.15 4017.64,2230.21"/>
    </edge>
    <edge id=":-17570_0" function="internal">
        <lane id=":-17570_0_0" index="0" speed="27.77" length="6.49" shape="5655.80,3355.46 5662.21,3354.40"/>
    </edge>
    <edge id=":-17570_1" function="internal">
        <lane id=":-17570_1_0" index="0" speed="36.11" length="4.95" shape="5656.28,3358.72 5661.26,3358.05"/>
        <lane id=":-17570_1_1" index="1" speed="36.11" length="4.95" shape="5656.75,3361.99 5661.65,3361.33"/>
        <lane id=":-17570_1_2" index="2" speed="36.11" length="4.95" shape="5657.22,3365.26 5662.04,3364.61"/>
    </edge>
    <edge id=":-17752_0" function="internal">
        <lane id=":-17752_0_0" index="0" speed="19.44" length="0.10" shape="6734.14,3698.50 6734.14,3698.50"/>
    </edge>
    <edge id=":-18412_0" function="internal">
        <lane id=":-18412_0_0" index="0" speed="27.77" length="5.43" shape="3675.89,8649.63 3672.40,8653.78"/>
    </edge>
    <edge id=":-18412_1" function="internal">
        <lane id=":-18412_1_0" index="0" speed="36.11" length="5.00" shape="3673.15,8647.64 3669.88,8651.66"/>
        <lane id=":-18412_1_1" index="1" speed="36.11" length="5.00" shape="3670.51,8645.65 3667.36,8649.53"/>
        <lane id=":-18412_1_2" index="2" speed="36.11" length="5.00" shape="3667.88,8643.66 3664.83,8647.40"/>
    </edge>
    <edge id=":-18790_0" function="internal">
        <lane id=":-18790_0_0" index="0" speed="27.77" length="4.99" shape="5663.20,3378.85 5658.23,3379.38"/>
    </edge>
    <edge id=":-18790_1" function="internal">
        <lane id=":-18790_1_0" index="0" speed="36.11" length="6.60" shape="5664.19,3375.19 5657.75,3376.12"/>
        <lane id=":-18790_1_1" index="1" speed="36.11" length="6.60" shape="5663.80,3371.92 5657.26,3372.85"/>
        <lane id=":-18790_1_2" index="2" speed="36.11" length="6.60" shape="5663.40,3368.64 5656.78,3369.59"/>
    </edge>
    <edge id=":-18974_0" function="internal">
        <lane id=":-18974_0_0" index="0" speed="27.77" length="5.00" shape="3710.38,4892.30 3708.62,4896.98"/>
    </edge>
    <edge id=":-18974_1" function="internal">
        <lane id=":-18974_1_0" index="0" speed="36.11" length="7.00" shape="3707.75,4889.37 3705.50,4895.92"/>
        <lane id=":-18974_1_1" index="1" speed="36.11" length="7.00" shape="3704.66,4888.24 3702.37,4894.86"/>
        <lane id=":-18974_1_2" index="2" speed="36.11" length="7.00" shape="3701.56,4887.10 3699.25,4893.80"/>
    </edge>
    <edge id=":-19020_0" function="internal">
        <lane id=":-19020_0_0" index="0" speed="19.44" length="26.66" shape="4221.98,3994.98 4227.44,3993.84 4235.06,3992.24 4242.60,3990.43 4247.84,3988.66"/>
    </edge>
    <edge id=":-19020_1" function="internal">
        <lane id=":-19020_1_0" index="0" speed="19.44" length="26.67" shape="4222.96,3998.24 4228.19,3996.31 4235.48,3993.62 4242.72,3990.85 4247.84,3988.66"/>
    </edge>
    <edge id=":-19164_0" function="internal">
        <lane id=":-19164_0_0" index="0" speed="19.44" length="15.50" shape="4093.36,4663.62 4092.88,4667.44 4092.34,4671.36 4092.08,4675.26 4092.42,4679.03"/>
    </edge>
    <edge id=":-19164_1" function="internal">
        <lane id=":-19164_1_0" index="0" speed="19.44" length="15.50" shape="4089.81,4663.75 4090.42,4667.53 4091.05,4671.40 4091.70,4675.27 4092.42,4679.03"/>
    </edge>
    <edge id=":-1918_0" function="internal">
        <lane id=":-1918_0_0" index="0" speed="19.44" length="0.10" shape="7032.30,3055.90 7032.30,3055.90"/>
    </edge>
    <edge id=":-19644_0" function="internal">
        <lane id=":-19644_0_0" index="0" speed="27.77" length="4.99" shape="10728.11,7152.58 10726.47,7147.87"/>
    </edge>
    <edge id=":-19644_1" function="internal">
        <lane id=":-19644_1_0" index="0" speed="36.11" length="5.55" shape="10731.46,7151.63 10729.53,7146.64"/>
        <lane id=":-19644_1_1" index="1" speed="36.11" length="5.55" shape="10734.59,7150.59 10732.59,7145.41"/>
        <lane id=":-19644_1_2" index="2" speed="36.11" length="5.55" shape="10737.72,7149.54 10735.65,7144.17"/>
    </edge>
    <edge id=":-20048_0" function="internal">
        <lane id=":-20048_0_0" index="0" speed="27.77" length="3.06" shape="7291.75,2958.21 7288.78,2958.96"/>
    </edge>
    <edge id=":-20048_1" function="internal">
        <lane id=":-20048_1_0" index="0" speed="36.11" length="5.78" shape="7291.00,2955.00 7285.42,2956.32"/>
        <lane id=":-20048_1_1" index="1" speed="36.11" length="5.78" shape="7290.25,2951.79 7284.62,2953.12"/>
        <lane id=":-20048_1_2" index="2" speed="36.11" length="5.78" shape="7289.50,2948.57 7283.82,2949.92"/>
    </edge>
    <edge id=":-20064_0" function="internal">
        <lane id=":-20064_0_0" index="0" speed="27.77" length="3.13" shape="4031.32,3627.88 4031.62,3624.77"/>
    </edge>
    <edge id=":-20064_1" function="internal">
        <lane id=":-20064_1_0" index="0" speed="36.11" length="1.45" shape="4034.89,3626.45 4034.92,3624.95"/>
        <lane id=":-20064_1_1" index="1" speed="36.11" length="1.45" shape="4038.18,3626.58 4038.21,3625.13"/>
        <lane id=":-20064_1_2" index="2" speed="36.11" length="1.45" shape="4041.48,3626.72 4041.51,3625.31"/>
    </edge>
    <edge id=":-20070_0" function="internal">
        <lane id=":-20070_0_0" index="0" speed="19.44" length="0.10" shape="6920.72,3206.15 6920.72,3206.15"/>
    </edge>
    <edge id=":-20236_0" function="internal">
        <lane id=":-20236_0_0" index="0" speed="27.77" length="4.38" shape="6689.23,2607.19 6690.27,2602.94"/>
    </edge>
    <edge id=":-20236_1" function="internal">
        <lane id=":-20236_1_0" index="0" speed="36.11" length="3.29" shape="6692.77,2607.11 6693.48,2603.71"/>
        <lane id=":-20236_1_1" index="1" speed="36.11" length="3.29" shape="6696.02,2607.69 6696.69,2604.48"/>
        <lane id=":-20236_1_2" index="2" speed="36.11" length="3.29" shape="6699.27,2608.27 6699.90,2605.24"/>
    </edge>
    <edge id=":-20266_0" function="internal">
        <lane id=":-20266_0_0" index="0" speed="19.44" length="12.63" shape="7191.38,3581.33 7191.25,3584.71 7191.21,3587.64 7191.22,3590.58 7191.21,3593.96"/>
    </edge>
    <edge id=":-20266_1" function="internal">
        <lane id=":-20266_1_0" index="0" speed="19.44" length="12.64" shape="7191.38,3581.33 7190.92,3584.65 7190.03,3587.43 7188.87,3590.16 7187.61,3593.32"/>
    </edge>
    <edge id=":-2036_0" function="internal">
        <lane id=":-2036_0_0" index="0" speed="27.77" length="6.97" shape="3901.81,7844.16 3902.98,7851.04"/>
    </edge>
    <edge id=":-2036_1" function="internal">
        <lane id=":-2036_1_0" index="0" speed="36.11" length="7.69" shape="3898.49,7844.26 3899.71,7851.49"/>
        <lane id=":-2036_1_1" index="1" speed="36.11" length="7.69" shape="3895.17,7844.36 3896.42,7851.94"/>
        <lane id=":-2036_1_2" index="2" speed="36.11" length="7.69" shape="3891.86,7844.45 3893.13,7852.40"/>
    </edge>
    <edge id=":-20508_0" function="internal">
        <lane id=":-20508_0_0" index="0" speed="27.77" length="6.16" shape="3535.48,1862.87 3540.60,1866.30"/>
    </edge>
    <edge id=":-20508_1" function="internal">
        <lane id=":-20508_1_0" index="0" speed="36.11" length="5.00" shape="3533.56,1865.56 3537.69,1868.58"/>
        <lane id=":-20508_1_1" index="1" speed="36.11" length="5.00" shape="3531.65,1868.25 3535.68,1871.20"/>
        <lane id=":-20508_1_2" index="2" speed="36.11" length="5.00" shape="3529.73,1870.93 3533.67,1873.81"/>
    </edge>
    <edge id=":-21778_0" function="internal">
        <lane id=":-21778_0_0" index="0" speed="36.11" length="2.79" shape="5008.59,5833.90 5005.66,5833.35"/>
        <lane id=":-21778_0_1" index="1" speed="36.11" length="2.79" shape="5009.15,5830.64 5006.41,5830.14"/>
        <lane id=":-21778_0_2" index="2" speed="36.11" length="2.79" shape="5009.71,5827.39 5007.16,5826.93"/>
    </edge>
    <edge id=":-21778_3" function="internal">
        <lane id=":-21778_3_0" index="0" speed="27.77" length="0.13" shape="5004.89,5836.69 5004.91,5836.57"/>
    </edge>
    <edge id=":-22094_0" function="internal">
        <lane id=":-22094_0_0" index="0" speed="27.77" length="3.20" shape="6747.98,3258.27 6748.97,3261.31"/>
    </edge>
    <edge id=":-22094_1" function="internal">
        <lane id=":-22094_1_0" index="0" speed="36.11" length="4.53" shape="6744.32,3258.41 6745.91,3262.53"/>
        <lane id=":-22094_1_1" index="1" speed="36.11" length="4.53" shape="6741.21,3259.52 6742.84,3263.75"/>
        <lane id=":-22094_1_2" index="2" speed="36.11" length="4.53" shape="6738.11,3260.64 6739.77,3264.97"/>
    </edge>
    <edge id=":-22284_0" function="internal">
        <lane id=":-22284_0_0" index="0" speed="27.77" length="3.30" shape="6839.33,3433.67 6840.94,3436.55"/>
    </edge>
    <edge id=":-22284_1" function="internal">
        <lane id=":-22284_1_0" index="0" speed="36.11" length="4.19" shape="6835.98,3435.08 6838.23,3438.43"/>
        <lane id=":-22284_1_1" index="1" speed="36.11" length="4.19" shape="6833.18,3436.83 6835.52,3440.31"/>
        <lane id=":-22284_1_2" index="2" speed="36.11" length="4.19" shape="6830.39,3438.59 6832.81,3442.19"/>
    </edge>
    <edge id=":-23274_0" function="internal">
        <lane id=":-23274_0_0" index="0" speed="19.44" length="5.36" shape="6911.02,3593.74 6910.25,3588.44"/>
    </edge>
    <edge id=":-23274_1" function="internal">
        <lane id=":-23274_1_0" index="0" speed="19.44" length="5.07" shape="6914.05,3591.78 6910.25,3588.44"/>
    </edge>
    <edge id=":-23434_0" function="internal">
        <lane id=":-23434_0_0" index="0" speed="27.77" length="3.22" shape="11186.54,9713.43 11184.39,9711.03"/>
    </edge>
    <edge id=":-23434_1" function="internal">
        <lane id=":-23434_1_0" index="0" speed="36.11" length="2.70" shape="11189.15,9711.42 11187.46,9708.94"/>
        <lane id=":-23434_1_1" index="1" speed="36.11" length="2.70" shape="11191.77,9709.41 11190.25,9707.18"/>
        <lane id=":-23434_1_2" index="2" speed="36.11" length="2.70" shape="11194.39,9707.40 11193.04,9705.42"/>
    </edge>
    <edge id=":-2428_0" function="internal">
        <lane id=":-2428_0_0" index="0" speed="19.44" length="0.20" shape="6455.52,3191.84 6455.50,3191.64"/>
    </edge>
    <edge id=":-24300_0" function="internal">
        <lane id=":-24300_0_0" index="0" speed="27.77" length="0.23" shape="7200.92,3872.14 7201.09,3871.98"/>
    </edge>
    <edge id=":-24300_1" function="internal">
        <lane id=":-24300_1_0" index="0" speed="36.11" length="21.44" shape="7203.39,3869.95 7204.75,3868.73"/>
        <lane id=":-24300_1_1" index="1" speed="36.11" length="21.44" shape="7205.85,3867.76 7207.24,3866.53"/>
        <lane id=":-24300_1_2" index="2" speed="36.11" length="21.44" shape="7254.79,3918.48 7245.08,3905.99 7235.38,3892.72 7225.99,3880.45 7217.20,3870.98"/>
    </edge>
    <edge id=":-24330_0" function="internal">
        <lane id=":-24330_0_0" index="0" speed="27.77" length="4.99" shape="3876.36,7836.69 3875.83,7831.73"/>
    </edge>
    <edge id=":-24330_1" function="internal">
        <lane id=":-24330_1_0" index="0" speed="36.11" length="5.50" shape="3879.74,7836.53 3879.10,7831.28"/>
        <lane id=":-24330_1_1" index="1" speed="36.11" length="5.50" shape="3883.03,7836.30 3882.37,7830.83"/>
        <lane id=":-24330_1_2" index="2" speed="36.11" length="5.50" shape="3886.32,7836.07 3885.64,7830.38"/>
    </edge>
    <edge id=":-24338_0" function="internal">
        <lane id=":-24338_0_0" index="0" speed="27.77" length="3.09" shape="6928.60,3081.63 6925.76,3082.83"/>
    </edge>
    <edge id=":-24338_1" function="internal">
        <lane id=":-24338_1_0" index="0" speed="36.11" length="0.31" shape="6927.41,3078.56 6927.10,3078.62"/>
        <lane id=":-24338_1_1" index="1" speed="36.11" length="0.31" shape="6926.22,3075.48 6925.92,3075.54"/>
        <lane id=":-24338_1_2" index="2" speed="36.11" length="0.31" shape="6925.03,3072.40 6924.73,3072.46"/>
    </edge>
    <edge id=":-24374_0" function="internal">
        <lane id=":-24374_0_0" index="0" speed="19.44" length="22.74" shape="4053.51,3853.96 4053.71,3858.89 4054.49,3865.25 4055.45,3871.60 4056.19,3876.52"/>
    </edge>
    <edge id=":-24374_1" function="internal">
        <lane id=":-24374_1_0" index="0" speed="19.44" length="22.75" shape="4053.51,3853.96 4053.29,3858.91 4053.08,3865.32 4052.90,3871.73 4052.76,3876.69"/>
    </edge>
    <edge id=":-24552_0" function="internal">
        <lane id=":-24552_0_0" index="0" speed="19.44" length="0.22" shape="7099.02,3722.23 7098.84,3722.35"/>
    </edge>
    <edge id=":-24594_0" function="internal">
        <lane id=":-24594_0_0" index="0" speed="27.77" length="3.24" shape="6675.30,3105.35 6674.31,3102.26"/>
    </edge>
    <edge id=":-24594_1" function="internal">
        <lane id=":-24594_1_0" index="0" speed="36.11" length="2.89" shape="6678.51,3104.59 6677.95,3101.43"/>
        <lane id=":-24594_1_1" index="1" speed="36.11" length="2.89" shape="6681.72,3103.82 6681.22,3100.98"/>
        <lane id=":-24594_1_2" index="2" speed="36.11" length="2.89" shape="6684.93,3103.06 6684.49,3100.53"/>
    </edge>
    <edge id=":-25170_0" function="internal">
        <lane id=":-25170_0_0" index="0" speed="27.77" length="3.07" shape="10808.42,7671.53 10808.25,7674.59"/>
    </edge>
    <edge id=":-25170_1" function="internal">
        <lane id=":-25170_1_0" index="0" speed="36.11" length="0.16" shape="10804.91,7674.47 10804.95,7674.62"/>
        <lane id=":-25170_1_1" index="1" speed="36.11" length="0.16" shape="10801.62,7674.36 10801.65,7674.51"/>
        <lane id=":-25170_1_2" index="2" speed="36.11" length="0.16" shape="10798.32,7674.25 10798.35,7674.40"/>
    </edge>
    <edge id=":-25376_0" function="internal">
        <lane id=":-25376_0_0" index="0" speed="19.44" length="5.78" shape="6830.41,2938.95 6836.09,2940.00"/>
    </edge>
    <edge id=":-25376_1" function="internal">
        <lane id=":-25376_1_0" index="0" speed="19.44" length="5.00" shape="6830.41,2938.95 6833.81,2942.61"/>
    </edge>
    <edge id=":-25398_0" function="internal">
        <lane id=":-25398_0_0" index="0" speed="27.77" length="3.13" shape="3857.27,4515.78 3858.74,4513.03"/>
    </edge>
    <edge id=":-25398_1" function="internal">
        <lane id=":-25398_1_0" index="0" speed="36.11" length="1.35" shape="3860.12,4517.45 3860.86,4516.30"/>
        <lane id=":-25398_1_1" index="1" speed="36.11" length="1.35" shape="3862.96,4519.12 3863.69,4517.99"/>
        <lane id=":-25398_1_2" index="2" speed="36.11" length="1.35" shape="3865.81,4520.80 3866.52,4519.68"/>
    </edge>
    <edge id=":-25614_0" function="internal">
        <lane id=":-25614_0_0" index="0" speed="19.44" length="0.10" shape="6722.30,3329.91 6722.30,3329.91"/>
    </edge>
    <edge id=":-2612_0" function="internal">
        <lane id=":-2612_0_0" index="0" speed="27.77" length="3.06" shape="6946.31,3577.41 6948.24,3579.79"/>
    </edge>
    <edge id=":-2612_1" function="internal">
        <lane id=":-2612_1_0" index="0" speed="36.11" length="3.18" shape="6941.73,3576.89 6943.65,3579.49"/>
        <lane id=":-2612_1_1" index="1" speed="36.11" length="3.18" shape="6939.15,3578.96 6941.04,3581.51"/>
        <lane id=":-2612_1_2" index="2" speed="36.11" length="3.18" shape="6936.58,3581.02 6938.44,3583.54"/>
    </edge>
    <edge id=":-26344_0" function="internal">
        <lane id=":-26344_0_0" index="0" speed="27.77" length="3.34" shape="3995.54,2624.29 3994.49,2621.12"/>
    </edge>
    <edge id=":-26344_1" function="internal">
        <lane id=":-26344_1_0" index="0" speed="36.11" length="4.34" shape="3998.77,2623.61 3997.85,2619.49"/>
        <lane id=":-26344_1_1" index="1" speed="36.11" length="4.34" shape="4002.00,2622.93 4001.05,2618.69"/>
        <lane id=":-26344_1_2" index="2" speed="36.11" length="4.34" shape="4005.23,2622.24 4004.25,2617.88"/>
    </edge>
    <edge id=":-26472_0" function="internal">
        <lane id=":-26472_0_0" index="0" speed="19.44" length="21.22" shape="7113.09,2978.50 7117.78,2977.87 7123.63,2977.09 7129.44,2976.16 7134.01,2975.06"/>
    </edge>
    <edge id=":-26472_1" function="internal">
        <lane id=":-26472_1_0" index="0" speed="19.44" length="21.23" shape="7113.90,2981.85 7118.38,2980.34 7123.96,2978.45 7129.54,2976.57 7134.01,2975.06"/>
    </edge>
    <edge id=":-27080_0" function="internal">
        <lane id=":-27080_0_0" index="0" speed="19.44" length="0.10" shape="6807.54,3304.96 6807.54,3304.96"/>
    </edge>
    <edge id=":-27406_0" function="internal">
        <lane id=":-27406_0_0" index="0" speed="27.77" length="5.00" shape="3658.06,8634.59 3661.17,8630.67"/>
    </edge>
    <edge id=":-27406_1" function="internal">
        <lane id=":-27406_1_0" index="0" speed="36.11" length="5.59" shape="3660.59,8636.71 3663.99,8632.52"/>
        <lane id=":-27406_1_1" index="1" speed="36.11" length="5.59" shape="3663.13,8638.83 3666.65,8634.48"/>
        <lane id=":-27406_1_2" index="2" speed="36.11" length="5.59" shape="3665.66,8640.94 3669.31,8636.44"/>
    </edge>
    <edge id=":-27456_0" function="internal">
        <lane id=":-27456_0_0" index="0" speed="27.77" length="3.24" shape="11146.80,9594.62 11148.11,9597.58"/>
    </edge>
    <edge id=":-27456_1" function="internal">
        <lane id=":-27456_1_0" index="0" speed="36.11" length="3.99" shape="11143.45,9595.76 11145.20,9599.15"/>
        <lane id=":-27456_1_1" index="1" speed="36.11" length="3.99" shape="11140.47,9597.17 11142.30,9600.71"/>
        <lane id=":-27456_1_2" index="2" speed="36.11" length="3.99" shape="11137.48,9598.58 11139.39,9602.28"/>
    </edge>
    <edge id=":-27480_0" function="internal">
        <lane id=":-27480_0_0" index="0" speed="27.77" length="3.26" shape="3759.71,7008.78 3760.01,7012.02"/>
    </edge>
    <edge id=":-27480_1" function="internal">
        <lane id=":-27480_1_0" index="0" speed="36.11" length="2.42" shape="3756.29,7010.23 3756.76,7012.60"/>
        <lane id=":-27480_1_1" index="1" speed="36.11" length="2.42" shape="3753.04,7010.81 3753.51,7013.18"/>
        <lane id=":-27480_1_2" index="2" speed="36.11" length="2.42" shape="3749.79,7011.39 3750.26,7013.76"/>
    </edge>
    <edge id=":-28066_0" function="internal">
        <lane id=":-28066_0_0" index="0" speed="27.77" length="6.12" shape="2197.40,9318.84 2191.28,9318.87"/>
    </edge>
    <edge id=":-28066_1" function="internal">
        <lane id=":-28066_1_0" index="0" speed="36.11" length="5.00" shape="2196.41,9315.50 2191.28,9315.57"/>
        <lane id=":-28066_1_1" index="1" speed="36.11" length="5.00" shape="2196.28,9312.21 2191.28,9312.27"/>
        <lane id=":-28066_1_2" index="2" speed="36.11" length="5.00" shape="2196.15,9308.91 2191.28,9308.97"/>
    </edge>
    <edge id=":-2836_0" function="internal">
        <lane id=":-2836_0_0" index="0" speed="27.77" length="3.93" shape="4117.86,4921.49 4116.52,4917.80"/>
    </edge>
    <edge id=":-2836_1" function="internal">
        <lane id=":-2836_1_0" index="0" speed="36.11" length="3.31" shape="4120.99,4920.43 4119.96,4917.07"/>
        <lane id=":-2836_1_1" index="1" speed="36.11" length="3.31" shape="4124.11,4919.37 4123.15,4916.20"/>
        <lane id=":-2836_1_2" index="2" speed="36.11" length="3.31" shape="4127.24,4918.31 4126.33,4915.34"/>
    </edge>
    <edge id=":-28494_0" function="internal">
        <lane id=":-28494_0_0" index="0" speed="19.44" length="6.50" shape="6911.67,3762.51 6907.53,3757.49"/>
    </edge>
    <edge id=":-28494_1" function="internal">
        <lane id=":-28494_1_0" index="0" speed="19.44" length="5.10" shape="6912.31,3759.29 6907.53,3757.49"/>
    </edge>
    <edge id=":-28626_0" function="internal">
        <lane id=":-28626_0_0" index="0" speed="27.77" length="3.14" shape="4119.88,4826.52 4120.53,4829.59"/>
    </edge>
    <edge id=":-28626_1" function="internal">
        <lane id=":-28626_1_0" index="0" speed="36.11" length="7.58" shape="4115.47,4823.10 4117.34,4830.41"/>
        <lane id=":-28626_1_1" index="1" speed="36.11" length="7.58" shape="4112.26,4823.89 4114.14,4831.24"/>
        <lane id=":-28626_1_2" index="2" speed="36.11" length="7.58" shape="4109.06,4824.69 4110.95,4832.06"/>
    </edge>